Circuit: * C:\Users\Mohammad Navid\Desktop\New folder\P-1.asc

.OP point found by inspection.

Date: Tue Aug 14 01:27:07 2018
Total elapsed time: 0.056 seconds.

tnom = 27
temp = 27
method = modified trap
totiter = 2383
traniter = 2383
tranpoints = 1067
accept = 1059
rejected = 8
matrix size = 4
fillins = 1
solver = Normal
Matrix Compiler1: 226 bytes object code size  0.1/0.0/[0.0]
Matrix Compiler2:      24 opcodes  0.1/[0.0]/0.1

